     193
 i =        0, time =        0.000, E =     -1103.0750212174
  O         3.8585873763       -4.7533175213        5.5091974759
  H         4.2109950951       -5.5568705259        5.9994585948
  H         3.0947084560       -4.3172663108        5.9135950646
  O        -3.5460761891        1.7456237131        4.2880212708
  H        -3.3572582677        0.8369944362        4.1529456220
  H        -3.6089143450        1.9436976972        5.2698392012
  O         4.5691359319        2.9343274990       -7.0999718127
  H         3.6785962350        3.2291072409       -6.8049831901
  H         4.4953665356        2.7845914189       -8.0458027314
  O        -2.5731801314       -0.1063102257       -3.4147140374
  H        -2.0386687011        0.4155234251       -2.8289645480
  H        -1.8891606976       -0.6148201666       -3.9280631618
  O        -3.7625034284       -7.7105940327        5.6279977389
  H        -4.6343536576       -7.4199803039        5.9874790347
  H        -3.8520633915       -7.6348492192        4.6607806353
  O        -6.7131259426       -0.0759204976        2.3176844292
  H        -6.0415850051       -0.4560400697        3.0079983076
  H        -6.2582643134        0.7343068494        1.9582947358
  O         4.0109535867       -5.5817692668       -0.4126912859
  H         3.3321311866       -5.6166906662        0.3076935926
  H         3.9051538355       -4.7533442556       -0.8369521875
  O        -2.6692626967       -3.0810510613       -1.2259349448
  H        -3.2486322997       -2.4491708867       -1.7386930105
  H        -2.1918958173       -2.5988518360       -0.5763067756
  O         5.4576244064       -3.1688044689        3.1002596795
  H         4.6854987571       -3.2457995297        3.6224179934
  H         5.2579372917       -3.0507495002        2.1311396222
  O         2.0078792352        3.8025888294       -6.6441198936
  H         1.3809036112        3.0702729257       -6.8038689306
  H         1.8366067800        4.0666291804       -5.7099975874
  O         4.0608830110       -3.8929207302       -3.0596772434
  H         3.2332712864       -3.7206669725       -3.6953758544
  H         4.3366899606       -2.9825098616       -2.9848217710
  O         1.9773593054       -1.8442291306        1.0225667179
  H         1.5650644885       -2.4713604568        1.6495937537
  H         1.6194813185       -1.9133123969        0.0656946095
  O         0.7338447631       -5.7432877136       -5.0100685957
  H         1.4795768454       -6.3299226862       -4.8189325814
  H         0.4491149358       -5.7095685669       -5.9473559749
  O        -7.5166459589       -8.6781062088       -3.2371569882
  H        -7.8737663294       -9.6027219294       -3.0814153209
  H        -7.1323941392       -8.5788960418       -2.3467663280
  O         3.0089956358       -1.6206934676        5.1704516391
  H         3.8547864750       -1.8022862145        5.6866350548
  H         3.1700832113       -0.8185381416        4.6102432456
  O        -0.0943492744        1.8634710749       -6.6861347029
  H         0.2389831969        1.0552334471       -6.3170377387
  H        -0.0534604238        1.7370469556       -7.6527831571
  O         1.3803001006       -3.0815472275        3.6598466091
  H         2.0052752091       -2.6793618758        4.3169228939
  H         1.0973942250       -3.9666380514        3.9813401483
  O        -2.3279129364        2.8060791527        2.2347417439
  H        -1.6230445751        2.1315230876        2.1866163236
  H        -2.7609234795        2.5819568350        3.0889511952
  O         0.8745131234       -0.6611187482       -5.6004046460
  H         1.7204015713       -0.8189656405       -6.1098612966
  H         1.1964117837       -0.2405057963       -4.7549061774
  O        -1.1866462102       -0.7164030048        0.2437849238
  H        -0.1866462102       -0.7164030048        0.2437849238
  H        -1.1340006348        0.2325710411       -0.0726156939
  H        -0.9335438317       -0.7854778370        1.2011335414
  O        -3.8861935106       -9.0129285534       -3.1318571683
  H        -4.4983492231       -8.2801255892       -3.2160220896
  H        -2.9183857578       -8.7301395642       -3.1224505015
  O         4.9784414381        4.5574106629        2.1605978288
  H         4.5742506248        4.0690251974        1.4375040342
  H         4.2106782789        4.9079438424        2.6736093641
  O         4.2074812608        1.0294752439       -3.2134938111
  H         4.6250866171        0.8524308220       -4.0648666086
  H         4.4221519308        0.1920392568       -2.7364360799
  O        -5.2106345443       -6.3463699492       -2.6806456410
  H        -5.3801630197       -6.0861826108       -1.7737611737
  H        -5.9985546753       -6.0894306119       -3.1521879087
  O         4.8272006144       -2.1493089974        0.6957555837
  H         5.1698114049       -1.3843105780        1.1680731517
  H         3.8731403616       -2.0152767607        0.7901517878
  O         2.1084974235        0.9406557281        1.6964699575
  H         2.7635704789        1.5106519967        1.2582480434
  H         2.3138417141        0.0791504768        1.2943222699
  O        -5.7579045611       -5.0935991816       -0.3613728277
  H        -6.6922016300       -5.4438912590       -0.2434456391
  H        -5.9339541154       -4.1852263482       -0.6893230982
  O        -4.8501183696        4.6347512586        2.6323657871
  H        -5.8186923573        4.7291496971        2.3648078237
  H        -4.7686962808        3.6685062675        2.2489112658
  O         5.5123889390        0.8523825517       -5.5927914459
  H         6.4009274201        1.1961666201       -5.3454982775
  H         5.0326268549        1.4571097750       -6.2820870000
  O         0.7365184732       -1.9176950430       -1.2724577473
  H         0.4366627686       -2.6685959517       -1.8452499204
  H        -0.0280723827       -1.6346960324       -0.7323636982
  O         3.9005939808        2.6221972296        0.0824981180
  H         4.6603628952        2.4136405159       -0.4885023274
  H         3.3619307241        3.2465911837       -0.4599512808
  O        -1.0991624885       -1.3693412589        2.9498880034
  H        -0.3354058556       -2.0369012425        3.1075024163
  H        -1.8473458549       -1.9916364646        3.2032143743
  O         2.0718451094       -5.6501678174        1.3629079156
  H         1.2043618452       -6.1369822674        1.2560686630
  H         2.4507495844       -5.8859092245        2.2558212721
  O        -0.6280310316       -3.8273493362       -2.8460859716
  H        -1.5583639221       -3.7769636412       -2.5811140145
  H        -0.5112292363       -4.5879523025       -3.3982225959
  O        -5.2918433010        2.0621670074        1.4353011132
  H        -4.4549447831        1.8776050679        1.9014549175
  H        -5.1335936869        1.9198214761        0.4197228743
  O         1.9599719653       -3.4245632717       -5.2673604360
  H         1.3225562775       -4.2123092010       -5.0388832852
  H         1.2999292168       -2.7711468268       -5.4986783863
  O        -1.1933205846        3.9368513830       -3.3737465077
  H        -1.2003012694        3.9803649971       -4.3582935942
  H        -0.7402505311        4.6500956055       -2.9405594580
  O        -5.4243979802       -5.0029807582        4.2784625506
  H        -6.1164034705       -4.5127003053        3.7817315683
  H        -4.7403199519       -5.3498607764        3.6920944114
  O         2.9732984993        5.7937546317        3.6041830736
  H         3.4176710045        6.4726708296        4.1695014822
  H         2.4485201643        5.2041088060        4.2250869218
  O        -4.0511295134        1.5445925671       -5.0626498585
  H        -3.5387103609        0.7974835831       -4.6210546124
  H        -4.0333821170        2.3518494025       -4.4301366268
  O         3.4847726839        0.5997692637        4.0091486817
  H         2.7896502362        0.5375110591        3.2686671028
  H         4.3189983631        0.4153324309        3.4395276451
  O        -4.6207476869       -1.0117618538        4.0048952776
  H        -5.3477593066       -1.2443059233        4.6253237945
  H        -4.2163881176       -1.8844792105        3.8428058821
  O        -0.2165387154        1.2751467697        3.1167167744
  H         0.6371782887        1.4136801810        2.7286969429
  H        -0.3894124526        0.3225841245        3.0508790291
  O        -1.9915351632        5.0697083632        0.6000194332
  H        -2.3376502958        4.2340876605        1.0013898546
  H        -2.6520248188        5.7471163392        0.8506616742
  O        -1.3075474036       -1.8956122645       -4.9542920356
  H        -0.8701251561       -2.4028189929       -4.2563741889
  H        -0.5949693850       -1.3532124979       -5.4532434800
  O        -5.1373452268        1.8062068789       -1.2867681226
  H        -4.6981592560        2.4597481938       -1.8505668997
  H        -5.4245526684        1.1256927260       -1.8633945543
  O        -7.3836561358       -1.2119873462       -1.9506599575
  H        -6.4212881329       -1.0371432188       -2.1463799566
  H        -7.4808782211       -1.5310477918       -1.0339482458
  O        -0.4639445925        1.4048471789       -1.7228637494
  H        -0.7867348868        2.1866499220       -2.1962304023
  H         0.2743927320        0.9864157199       -2.2215845685
  O        -0.0298107043       -6.5210921839       -1.0933643185
  H         0.0021424143       -5.5311453888       -1.1226646288
  H        -0.8031132631       -6.7435142146       -0.4648562320
  O         5.7090935537       -1.6927086580        6.0185486672
  H         6.0227718591       -2.5102376528        6.4195407580
  H         5.6793497711       -0.9012395738        6.6521961143
  O        -2.5962982991       -5.7683972037       -4.2195771395
  H        -2.6049028140       -6.7077669400       -4.4728336739
  H        -3.4354537463       -5.5645841736       -3.8483514813
  O        -4.9449687319       -1.4086720170       -3.2473392351
  H        -4.8913021653       -2.2217322989       -3.7674224672
  H        -3.9689548003       -1.0964857745       -3.2341980948
  O         2.2983754229       -8.0809494482       -1.2132412662
  H         1.3003681505       -8.0636283692       -1.1143923954
  H         2.5161940132       -7.1053673603       -1.1768519202
  O         6.7754357543       -3.8965331032       -5.3359261145
  H         7.5499418595       -4.1003001805       -5.8213622687
  H         6.0430158524       -4.4328146397       -5.6479610986
  O        -0.3424844631        4.9658112476        2.9508285728
  H        -0.6418240309        4.1672557959        3.4716379980
  H        -0.6759740908        4.8699377537        2.0551376194
  O        -2.8056288807       -4.0048234272        6.2239057927
  H        -2.3850599469       -4.6322887909        6.8455564859
  H        -2.3797353004       -3.1498233269        6.4330163166
  O        -2.7925113864       -3.4732237158        3.4612331596
  H        -3.1129543056       -3.8620641144        4.2746132111
  H        -3.2856093678       -4.0271447136        2.8274407488
  O         2.4867711476        4.6803618907       -3.9511208166
  H         3.3971373036        4.5081635205       -3.6298163906
  H         1.9790712168        4.6240682409       -3.1152437525
  O         1.6590765104        0.0523137912       -3.1069189687
  H         1.5113564742       -0.5996769003       -2.3563690233
  H         2.5068721250        0.5264194699       -3.0661523880
  O        -1.2023048654       -8.1603479212       -6.3670700282
  H        -0.9055157967       -9.0690551157       -6.5705273597
  H        -2.1798096138       -8.0740016376       -6.5464905196
  O        -0.4761071273        8.3851620636        0.5987466087
  H         0.3632441731        8.3096547993        1.1058350782
  H        -1.2852386123        8.0753854402        1.0587255936
  O         5.9065449362       -6.7989771803       -6.6004398209
  H         5.4130154976       -7.6233171741       -6.9137876216
  H         6.2177506878       -6.2344541440       -7.3198720135
  O        -0.3594330297       -5.2622440761        4.6704297767
  H        -0.4156127476       -6.0988819305        4.1367481919
  H        -1.2931127588       -5.1547968831        4.9497584977
  O        -3.8273131578       -5.5279235466        1.7633664403
  H        -4.1388543582       -6.3621998573        2.1513804320
  H        -4.3955669691       -5.3216936959        1.0405948547
     193
 i =        1, time =        0.500, E =     -1103.0802416285
  O         3.8618615665       -4.7565901538        5.5094977998
  H         4.2148327382       -5.5550084190        5.9961521985
  H         3.0920000230       -4.3226484106        5.9063775197
  O        -3.5427663218        1.7428086286        4.2897874128
  H        -3.3417988149        0.8257693224        4.1542623751
  H        -3.6023477835        1.9355966998        5.2821897986
  O         4.5682446546        2.9323431414       -7.0983656536
  H         3.6679168375        3.2177104253       -6.8133972100
  H         4.4882861643        2.7946060383       -8.0525627674
  O        -2.5737110600       -0.1020453757       -3.4159582228
  H        -2.0457164250        0.4261493988       -2.8325573547
  H        -1.8804885043       -0.6213552239       -3.9227936308
  O        -3.7623668987       -7.7106596210        5.6257876304
  H        -4.6427960472       -7.4221110224        5.9938252458
  H        -3.8516726455       -7.6245522391        4.6610784342
  O        -6.7094928941       -0.0753360748        2.3187580713
  H        -6.0395180282       -0.4626289817        3.0175473589
  H        -6.2613868710        0.7368094223        1.9591461215
  O         4.0136160518       -5.5818842120       -0.4129018450
  H         3.3292560393       -5.6071957078        0.3124573838
  H         3.9118849365       -4.7476137762       -0.8222605962
  O        -2.6723093024       -3.0804078084       -1.2269899019
  H        -3.2341951220       -2.4494072269       -1.7446968836
  H        -2.2117004346       -2.5978267604       -0.5756115729
  O         5.4551832757       -3.1688523453        3.0993944357
  H         4.6941533196       -3.2358013354        3.6355127578
  H         5.2636871162       -3.0650748211        2.1390042065
  O         2.0076010422        3.8026319717       -6.6439682894
  H         1.3655463322        3.0697168374       -6.8009480701
  H         1.8273580975        4.0667496928       -5.7126974954
  O         4.0602953577       -3.8907831149       -3.0585429620
  H         3.2261022074       -3.7181932418       -3.6832711837
  H         4.3517006643       -2.9682124118       -2.9760604273
  O         1.9769550206       -1.8458375400        1.0200854292
  H         1.5810333895       -2.4654304535        1.6442174587
  H         1.6086072020       -1.9212807327        0.0640048460
  O         0.7300107437       -5.7417784097       -5.0110311356
  H         1.4785393159       -6.3203478779       -4.8152136781
  H         0.4503564722       -5.7147817480       -5.9492841350
  O        -7.5205664778       -8.6781197855       -3.2367247463
  H        -7.8692618006       -9.6018340935       -3.0946134739
  H        -7.1373396433       -8.5838570099       -2.3504231686
  O         3.0072810639       -1.6213027034        5.1697615282
  H         3.8539808596       -1.8091043544        5.6855864943
  H         3.1600273129       -0.8293861177        4.6086982563
  O        -0.0949980940        1.8622900882       -6.6871876752
  H         0.2467665538        1.0548602531       -6.3262607778
  H        -0.0519157075        1.7491823023       -7.6536863727
  O         1.3774546245       -3.0813097769        3.6598529839
  H         2.0161820259       -2.6794798488        4.3181062489
  H         1.1013443527       -3.9646687156        3.9790812226
  O        -2.3261453482        2.8031181766        2.2375884606
  H        -1.6172008060        2.1486300783        2.1998114360
  H        -2.7633963826        2.5809334146        3.0965626019
  O         0.8707555693       -0.6622501623       -5.6029786643
  H         1.7111176824       -0.8252545742       -6.1165673065
  H         1.2078533351       -0.2361167562       -4.7575650370
  O        -1.1844700840       -0.7181157084        0.2465627714
  H        -0.1823247584       -0.7174442536        0.2534507583
  H        -1.1322258625        0.2269129652       -0.0772823685
  H        -0.9377700727       -0.7808149441        1.2147521763
  O        -3.8851018666       -9.0154833190       -3.1308021934
  H        -4.4959077558       -8.2804654825       -3.2155517743
  H        -2.9144144975       -8.7354426035       -3.1141671483
  O         4.9768585165        4.5589351503        2.1576890434
  H         4.5734218855        4.0626478502        1.4479892933
  H         4.2006374553        4.9143726315        2.6873529009
  O         4.2110744228        1.0306217210       -3.2103018778
  H         4.6331271820        0.8526889436       -4.0667231817
  H         4.4309479805        0.1906189986       -2.7544260233
  O        -5.2087065084       -6.3426440487       -2.6768692514
  H        -5.3834600657       -6.0920009407       -1.7764705734
  H        -5.9960799163       -6.1030943645       -3.1478505671
  O         4.8261203378       -2.1481474942        0.6938875058
  H         5.1626469233       -1.3872516177        1.1684303999
  H         3.8637381514       -2.0295134991        0.7835285636
  O         2.1062535304        0.9370649251        1.7008942628
  H         2.7613302028        1.5097338671        1.2460325975
  H         2.3156239011        0.0754953860        1.2862056864
  O        -5.7583327372       -5.0893912996       -0.3634046941
  H        -6.6975951979       -5.4367149960       -0.2301253788
  H        -5.9476897176       -4.1884659124       -0.6959075956
  O        -4.8504253820        4.6319890443        2.6324145427
  H        -5.8251756111        4.7390141625        2.3687565179
  H        -4.7790014292        3.6663774951        2.2426261416
  O         5.5120821097        0.8545321608       -5.5912188614
  H         6.4014411107        1.2093670152       -5.3505024165
  H         5.0419982291        1.4490039958       -6.2721352027
  O         0.7395631287       -1.9154682243       -1.2746353084
  H         0.4324888176       -2.6667684949       -1.8487222737
  H        -0.0353631460       -1.6347495234       -0.7388300439
  O         3.9006944206        2.6225339676        0.0835871918
  H         4.6586023378        2.4122721656       -0.5064183374
  H         3.3567586662        3.2559208587       -0.4690233637
  O        -1.1006936566       -1.3692406397        2.9525578048
  H        -0.3327246186       -2.0350220154        3.1093422530
  H        -1.8397496926       -1.9887369908        3.1876116233
  O         2.0720167991       -5.6491050367        1.3598267184
  H         1.2056863330       -6.1364401669        1.2547840572
  H         2.4484234892       -5.8928845445        2.2568332360
  O        -0.6294030400       -3.8287302900       -2.8475481130
  H        -1.5519912823       -3.7816090031       -2.5894247010
  H        -0.5086152783       -4.5969904359       -3.4028122350
  O        -5.2917664550        2.0613978677        1.4338524309
  H        -4.4326410336        1.8894474298        1.9034178455
  H        -5.1476179199        1.9261943894        0.4318492607
  O         1.9614480578       -3.4293896986       -5.2660697769
  H         1.3144805858       -4.2061731411       -5.0383500168
  H         1.2985964143       -2.7696967009       -5.4929193132
  O        -1.1921399592        3.9354696341       -3.3716221489
  H        -1.1926008932        3.9704564104       -4.3646582353
  H        -0.7296182433        4.6632842283       -2.9323208237
  O        -5.4299380517       -5.0044438730        4.2779105543
  H        -6.1171563717       -4.5093022335        3.7862684256
  H        -4.7582865795       -5.3393698688        3.6743683415
  O         2.9758081238        5.7927261370        3.6019954426
  H         3.4198652625        6.4638004055        4.1617276551
  H         2.4533592602        5.2103190447        4.2303229469
  O        -4.0514088235        1.5451306060       -5.0661753590
  H        -3.5230344373        0.7954639020       -4.6187740805
  H        -4.0300945256        2.3462720940       -4.4236144119
  O         3.4835363294        0.5968082380        4.0095713515
  H         2.7907813249        0.5315493272        3.2669656463
  H         4.3289383238        0.4277553827        3.4363398524
  O        -4.6231854030       -1.0115168093        4.0025944697
  H        -5.3405882905       -1.2500945244        4.6334602684
  H        -4.2205098203       -1.8945971267        3.8298266765
  O        -0.2157501512        1.2747317176        3.1177803835
  H         0.6449750472        1.4032433162        2.7206353652
  H        -0.3914904829        0.3131707351        3.0542953419
  O        -1.9936923059        5.0718053097        0.6012359137
  H        -2.3413798123        4.2315546162        0.9987340425
  H        -2.6353468332        5.7599125732        0.8442601505
  O        -1.3081134299       -1.8939118915       -4.9535389850
  H        -0.8705414243       -2.4022834512       -4.2571447926
  H        -0.6025292944       -1.3578753942       -5.4443721067
  O        -5.1388902808        1.8068454940       -1.2875535950
  H        -4.6966895862        2.4743746590       -1.8494823448
  H        -5.4268452956        1.1246936161       -1.8604428718
  O        -7.3796103970       -1.2116850436       -1.9486995711
  H        -6.4169454184       -1.0384811070       -2.1254774029
  H        -7.4839829463       -1.5284152651       -1.0375654593
  O        -0.4605632794        1.4061307115       -1.7229991000
  H        -0.7797640653        2.1832554562       -2.2057591017
  H         0.2613526536        0.9819471186       -2.2292427058
  O        -0.0324134386       -6.5209286442       -1.0940285907
  H         0.0056771604       -5.5307087540       -1.1198101724
  H        -0.8162253589       -6.7469360474       -0.4743004508
  O         5.7105471812       -1.6933720772        6.0204391047
  H         6.0247227022       -2.5153074424        6.4173696005
  H         5.6852657524       -0.8912485563        6.6347937711
  O        -2.5940680120       -5.7678125832       -4.2183828301
  H        -2.6072385094       -6.7152753469       -4.4751614226
  H        -3.4437343116       -5.5727784681       -3.8534516896
  O        -4.9470230148       -1.4116750053       -3.2447054166
  H        -4.8928063836       -2.2389736222       -3.7582972431
  H        -3.9719199538       -1.0838848398       -3.2416975000
  O         2.2975040153       -8.0834280560       -1.2131895347
  H         1.2981657016       -8.0829911263       -1.1141983776
  H         2.5216174341       -7.1138081333       -1.1714055346
  O         6.7794822254       -3.8957294022       -5.3335667294
  H         7.5473147476       -4.0962986601       -5.8137459808
  H         6.0430784312       -4.4274837992       -5.6547276638
  O        -0.3455210457        4.9679915191        2.9521804789
  H        -0.6530055674        4.1684418193        3.4624590297
  H        -0.6915325050        4.8627330604        2.0439252038
  O        -2.8035652852       -4.0049296861        6.2233071913
  H        -2.3849764976       -4.6324741036        6.8494094993
  H        -2.3843000332       -3.1469824173        6.4234060541
  O        -2.7942312845       -3.4739251603        3.4607260597
  H        -3.1098442509       -3.8682395664        4.2681637283
  H        -3.2963872198       -4.0290903809        2.8379029069
  O         2.4857284672        4.6852494992       -3.9510539628
  H         3.3979782573        4.5061370434       -3.6236376058
  H         1.9905767110        4.6358112905       -3.1198460090
  O         1.6572891116        0.0487051371       -3.1076767276
  H         1.5300824060       -0.5986581602       -2.3501266086
  H         2.5088263725        0.5339187897       -3.0665794381
  O        -1.2036204731       -8.1575482604       -6.3695094040
  H        -0.9112426571       -9.0691649316       -6.5665805941
  H        -2.1830324254       -8.0667268304       -6.5505187336
  O        -0.4739629407        8.3842394462        0.5982473135
  H         0.3679411789        8.3151520372        1.1028180373
  H        -1.2982583361        8.0696720638        1.0536869285
  O         5.9080368853       -6.7980984683       -6.6010616788
  H         5.4043369588       -7.6112786308       -6.9110208110
  H         6.2456370592       -6.2408260486       -7.3201494419
  O        -0.3561567571       -5.2636358696        4.6728363010
  H        -0.4051273599       -6.0922320531        4.1400048080
  H        -1.2964400501       -5.1516113073        4.9600615199
  O        -3.8236642949       -5.5251025251        1.7610546010
  H        -4.1393919561       -6.3541921981        2.1493767192
  H        -4.4080964492       -5.3220470893        1.0401583322
